<configuration>
	<input>
		<net-file value="map.net.xml"/>
		<route-files value="bus_routes.rou.xml, passenger_routes.rou.xml"/>
		<additional-files value="map.poly.xml"/>
	</input>
</configuration>
